ionizedGTP.sdf
  ChemDraw04292619592D

 32 34  0  0  1  0  0  0  0  0999 V2000
    0.2831   -1.2589    0.0000 C   0  0  0  0  0  0  0  0  0  0  0  0
   -0.4314   -0.8464    0.0000 C   0  0  0  0  0  0  0  0  0  0  0  0
   -0.5176   -0.0259    0.0000 C   0  0  0  0  0  0  0  0  0  0  0  0
    0.0955    0.5261    0.0000 O   0  0  0  0  0  0  0  0  0  0  0  0
   -1.3246    0.1456    0.0000 C   0  0  0  0  0  0  0  0  0  0  0  0
   -1.6601    0.8993    0.0000 O   0  0  0  0  0  0  0  0  0  0  0  0
   -1.7371   -0.5689    0.0000 C   0  0  0  0  0  0  0  0  0  0  0  0
   -1.1851   -1.1819    0.0000 O   0  0  0  0  0  0  0  0  0  0  0  0
   -2.5576   -0.6551    0.0000 N   0  0  0  0  0  0  0  0  0  0  0  0
   -2.9701   -1.3696    0.0000 C   0  0  0  0  0  0  0  0  0  0  0  0
   -3.7770   -1.1980    0.0000 N   0  0  0  0  0  0  0  0  0  0  0  0
   -3.8633   -0.3776    0.0000 C   0  0  0  0  0  0  0  0  0  0  0  0
   -4.5307    0.1074    0.0000 C   0  0  0  0  0  0  0  0  0  0  0  0
   -5.2844   -0.2282    0.0000 O   0  0  0  0  0  0  0  0  0  0  0  0
   -4.4445    0.9279    0.0000 N   0  0  0  0  0  0  0  0  0  0  0  0
   -3.6908    1.2634    0.0000 C   0  0  0  0  0  0  0  0  0  0  0  0
   -3.6046    2.0839    0.0000 N   0  0  0  0  0  0  0  0  0  0  0  0
   -3.0234    0.7785    0.0000 N   0  0  0  0  0  0  0  0  0  0  0  0
   -3.1096   -0.0420    0.0000 C   0  0  0  0  0  0  0  0  0  0  0  0
    1.7120   -1.2589    0.0000 P   0  0  0  0  0  0  0  0  0  0  0  0
    1.7120   -2.0839    0.0000 O   0  0  0  0  0  0  0  0  0  0  0  0
    0.9976   -0.8464    0.0000 O   0  0  0  0  0  0  0  0  0  0  0  0
    4.5699   -0.4339    0.0000 O   0  0  0  0  0  0  0  0  0  0  0  0
    1.7120   -0.4339    0.0000 O   0  0  0  0  0  0  0  0  0  0  0  0
    2.4265   -0.8464    0.0000 O   0  0  0  0  0  0  0  0  0  0  0  0
    3.1410   -1.2589    0.0000 P   0  0  0  0  0  0  0  0  0  0  0  0
    3.1410   -2.0839    0.0000 O   0  0  0  0  0  0  0  0  0  0  0  0
    3.1410   -0.4339    0.0000 O   0  0  0  0  0  0  0  0  0  0  0  0
    3.8554   -0.8464    0.0000 O   0  0  0  0  0  0  0  0  0  0  0  0
    4.5699   -1.2589    0.0000 P   0  0  0  0  0  0  0  0  0  0  0  0
    4.5699   -2.0839    0.0000 O   0  0  0  0  0  0  0  0  0  0  0  0
    5.2844   -0.8464    0.0000 O   0  0  0  0  0  0  0  0  0  0  0  0
  2  1  1  1
  2  3  1  0
  3  4  1  6
  3  5  1  0
  5  6  1  6
  5  7  1  0
  7  8  1  0
  2  8  1  0
  7  9  1  1
  9 10  1  0
 10 11  2  0
 11 12  1  0
 12 13  1  0
 13 14  2  0
 13 15  1  0
 15 16  1  0
 16 17  1  0
 16 18  2  0
 18 19  1  0
 12 19  2  0
  9 19  1  0
 20 21  2  0
 20 22  1  0
 20 24  1  0
 20 25  1  0
 25 26  1  0
 26 27  2  0
 26 28  1  0
 26 29  1  0
 29 30  1  0
 23 30  1  0
 30 31  2  0
 30 32  1  0
  1 22  1  0
M  CHG  4  23  -1  24  -1  28  -1  32  -1
M  END
$$$$
